
     RDKit          3D

 47 49  0  0  0  0  0  0  0  0999 V2000
   -0.5102    4.6647    1.5571 C   0  0  0  0  0  0  0  0  0  0  0  0
   -1.4320    3.5531    1.0587 C   0  0  0  0  0  0  0  0  0  0  0  0
   -0.6428    2.4225    0.3647 C   0  0  2  0  0  0  0  0  0  0  0  0
   -0.0763    2.8757   -0.9011 N   0  0  0  0  0  0  0  0  0  0  0  0
    0.9960    2.1435   -1.4937 C   0  0  0  0  0  0  0  0  0  0  0  0
    1.6669    2.6621   -2.4279 O   0  0  0  0  0  0  0  0  0  0  0  0
    1.3392    0.8415   -1.0010 N   0  0  0  0  0  0  0  0  0  0  0  0
    2.7544    0.4896   -0.8260 C   0  0  0  0  0  0  0  0  0  0  0  0
    2.9488   -0.2294    0.4845 C   0  0  0  0  0  0  0  0  0  0  0  0
    3.1119   -1.6253    0.5174 C   0  0  0  0  0  0  0  0  0  0  0  0
    3.1998   -2.2933    1.7452 C   0  0  0  0  0  0  0  0  0  0  0  0
    3.3497   -3.6410    1.7720 F   0  0  0  0  0  0  0  0  0  0  0  0
    3.1212   -1.5744    2.9438 C   0  0  0  0  0  0  0  0  0  0  0  0
    2.9564   -0.1866    2.9168 C   0  0  0  0  0  0  0  0  0  0  0  0
    2.8679    0.5072    4.0781 F   0  0  0  0  0  0  0  0  0  0  0  0
    2.8681    0.4849    1.6926 C   0  0  0  0  0  0  0  0  0  0  0  0
    0.3459   -0.2023   -0.9533 C   0  0  0  0  0  0  0  0  0  0  0  0
    0.6000   -1.2944   -1.5314 O   0  0  0  0  0  0  0  0  0  0  0  0
   -0.8844   -0.0701   -0.1986 N   0  0  0  0  0  0  0  0  0  0  0  0
   -1.4983   -1.2878    0.3674 C   0  0  0  0  0  0  0  0  0  0  0  0
   -2.0876   -2.1724   -0.7135 C   0  0  0  0  0  0  0  0  0  0  0  0
   -3.1961   -1.7068   -1.4450 C   0  0  0  0  0  0  0  0  0  0  0  0
   -3.7744   -2.4945   -2.4447 C   0  0  0  0  0  0  0  0  0  0  0  0
   -4.8445   -2.0324   -3.1405 F   0  0  0  0  0  0  0  0  0  0  0  0
   -3.2544   -3.7568   -2.7281 C   0  0  0  0  0  0  0  0  0  0  0  0
   -2.1567   -4.2350   -2.0122 C   0  0  0  0  0  0  0  0  0  0  0  0
   -1.5678   -3.4565   -1.0056 C   0  0  0  0  0  0  0  0  0  0  0  0
   -0.1890   -4.1361   -0.1454 Cl  0  0  0  0  0  0  0  0  0  0  0  0
   -1.4886    1.2058    0.1034 C   0  0  0  0  0  0  0  0  0  0  0  0
   -2.7475    1.2985    0.1549 O   0  0  0  0  0  0  0  0  0  0  0  0
   -1.1117    5.4472    2.0646 H   0  0  0  0  0  0  0  0  0  0  0  0
    0.0422    5.1299    0.7128 H   0  0  0  0  0  0  0  0  0  0  0  0
    0.2205    4.2579    2.2889 H   0  0  0  0  0  0  0  0  0  0  0  0
   -1.9817    3.1424    1.9347 H   0  0  0  0  0  0  0  0  0  0  0  0
   -2.1776    3.9830    0.3548 H   0  0  0  0  0  0  0  0  0  0  0  0
    0.1808    2.1199    1.0491 H   0  0  0  0  0  0  0  0  0  0  0  0
   -0.3554    3.7906   -1.3224 H   0  0  0  0  0  0  0  0  0  0  0  0
    3.3863    1.4054   -0.8201 H   0  0  0  0  0  0  0  0  0  0  0  0
    3.0929   -0.1330   -1.6824 H   0  0  0  0  0  0  0  0  0  0  0  0
    3.1546   -2.1964   -0.4059 H   0  0  0  0  0  0  0  0  0  0  0  0
    3.1833   -2.0930    3.8929 H   0  0  0  0  0  0  0  0  0  0  0  0
    2.7220    1.5580    1.6822 H   0  0  0  0  0  0  0  0  0  0  0  0
   -2.3059   -1.0279    1.0890 H   0  0  0  0  0  0  0  0  0  0  0  0
   -0.7378   -1.8186    0.9752 H   0  0  0  0  0  0  0  0  0  0  0  0
   -3.6196   -0.7338   -1.2370 H   0  0  0  0  0  0  0  0  0  0  0  0
   -3.7047   -4.3684   -3.5005 H   0  0  0  0  0  0  0  0  0  0  0  0
   -1.7638   -5.2171   -2.2395 H   0  0  0  0  0  0  0  0  0  0  0  0
  1  2  1  0
  2  3  1  0
  3  4  1  0
  4  5  1  0
  5  6  2  0
  5  7  1  0
  7  8  1  0
  8  9  1  0
  9 10  2  0
 10 11  1  0
 11 12  1  0
 11 13  2  0
 13 14  1  0
 14 15  1  0
 14 16  2  0
  7 17  1  0
 17 18  2  0
 17 19  1  0
 19 20  1  0
 20 21  1  0
 21 22  2  0
 22 23  1  0
 23 24  1  0
 23 25  2  0
 25 26  1  0
 26 27  2  0
 27 28  1  0
 19 29  1  0
 29 30  2  0
 29  3  1  0
 16  9  1  0
 27 21  1  0
  1 31  1  0
  1 32  1  0
  1 33  1  0
  2 34  1  0
  2 35  1  0
  3 36  1  1
  4 37  1  0
  8 38  1  0
  8 39  1  0
 10 40  1  0
 13 41  1  0
 16 42  1  0
 20 43  1  0
 20 44  1  0
 22 45  1  0
 25 46  1  0
 26 47  1  0
M  END
$$$$
